# generated using pymatgen
data_RuO2
_symmetry_space_group_name_H-M   'P 1'
_cell_length_a   4.54326700
_cell_length_b   4.54326700
_cell_length_c   3.13979600
_cell_angle_alpha   90.00000000
_cell_angle_beta   90.00000000
_cell_angle_gamma   90.00000000
_symmetry_Int_Tables_number   1
_chemical_formula_structural   RuO2
_chemical_formula_sum   'Ru2 O4'
_cell_volume   64.80939278
_cell_formula_units_Z   2
loop_
 _symmetry_equiv_pos_site_id
 _symmetry_equiv_pos_as_xyz
  1  'x, y, z'
loop_
 _atom_site_type_symbol
 _atom_site_label
 _atom_site_symmetry_multiplicity
 _atom_site_fract_x
 _atom_site_fract_y
 _atom_site_fract_z
 _atom_site_occupancy
  O  O0  1  0.19431000  0.80569000  0.50000000  1.0
  O  O1  1  0.80569000  0.19431000  0.50000000  1.0
  O  O2  1  0.69431000  0.69431000  0.00000000  1.0
  O  O3  1  0.30569000  0.30569000  0.00000000  1.0
  Ru  Ru4  1  0.50000000  0.50000000  0.50000000  1.0
  Ru  Ru5  1  0.00000000  0.00000000  0.00000000  1.0
